5326553
  -OEChem-03272621292D

 44 46  0     0  0  0  0  0  0999 V2000
    3.4030   -0.4229    0.0000 F   0  0  0  0  0  0  0  0  0  0  0  0
   10.5309   -1.1550    0.0000 O   0  0  0  0  0  0  0  0  0  0  0  0
    8.5309   -1.1550    0.0000 O   0  0  0  0  0  0  0  0  0  0  0  0
    6.9473    1.3818    0.0000 N   0  0  0  0  0  0  0  0  0  0  0  0
    6.9473   -0.2277    0.0000 N   0  0  0  0  0  0  0  0  0  0  0  0
    3.4030    2.5770    0.0000 N   0  0  0  0  0  0  0  0  0  0  0  0
    2.5369    1.0770    0.0000 N   0  0  0  0  0  0  0  0  0  0  0  0
    7.5309    0.5771    0.0000 C   0  0  0  0  0  0  0  0  0  0  0  0
    6.0010    1.0770    0.0000 C   0  0  0  0  0  0  0  0  0  0  0  0
    6.0010    0.0771    0.0000 C   0  0  0  0  0  0  0  0  0  0  0  0
   12.0309   -2.0210    0.0000 C   0  0  0  0  0  0  0  0  0  0  0  0
    8.5309    0.5771    0.0000 C   0  0  0  0  0  0  0  0  0  0  0  0
   11.5309   -1.1550    0.0000 C   0  0  0  0  0  0  0  0  0  0  0  0
    5.1350    1.5770    0.0000 C   0  0  0  0  0  0  0  0  0  0  0  0
    5.1350   -0.4229    0.0000 C   0  0  0  0  0  0  0  0  0  0  0  0
    9.0309   -0.2890    0.0000 C   0  0  0  0  0  0  0  0  0  0  0  0
   10.0309   -0.2890    0.0000 C   0  0  0  0  0  0  0  0  0  0  0  0
    4.2690    1.0770    0.0000 C   0  0  0  0  0  0  0  0  0  0  0  0
    9.0309    1.4431    0.0000 C   0  0  0  0  0  0  0  0  0  0  0  0
   13.0309   -2.0210    0.0000 C   0  0  0  0  0  0  0  0  0  0  0  0
   11.5309   -2.8870    0.0000 C   0  0  0  0  0  0  0  0  0  0  0  0
    4.2690    0.0771    0.0000 C   0  0  0  0  0  0  0  0  0  0  0  0
   10.5309    0.5771    0.0000 C   0  0  0  0  0  0  0  0  0  0  0  0
   10.0309    1.4431    0.0000 C   0  0  0  0  0  0  0  0  0  0  0  0
    3.4030    1.5770    0.0000 C   0  0  0  0  0  0  0  0  0  0  0  0
   11.4109   -2.0210    0.0000 H   0  0  0  0  0  0  0  0  0  0  0  0
    7.1399    1.9711    0.0000 H   0  0  0  0  0  0  0  0  0  0  0  0
    7.1399   -0.8170    0.0000 H   0  0  0  0  0  0  0  0  0  0  0  0
   12.1135   -0.9429    0.0000 H   0  0  0  0  0  0  0  0  0  0  0  0
   11.4232   -0.5444    0.0000 H   0  0  0  0  0  0  0  0  0  0  0  0
    5.1350    2.1970    0.0000 H   0  0  0  0  0  0  0  0  0  0  0  0
    5.1350   -1.0430    0.0000 H   0  0  0  0  0  0  0  0  0  0  0  0
    8.7209    1.9800    0.0000 H   0  0  0  0  0  0  0  0  0  0  0  0
   13.0309   -2.6410    0.0000 H   0  0  0  0  0  0  0  0  0  0  0  0
   13.6509   -2.0210    0.0000 H   0  0  0  0  0  0  0  0  0  0  0  0
   13.0309   -1.4010    0.0000 H   0  0  0  0  0  0  0  0  0  0  0  0
   10.9939   -2.5770    0.0000 H   0  0  0  0  0  0  0  0  0  0  0  0
   11.2209   -3.4240    0.0000 H   0  0  0  0  0  0  0  0  0  0  0  0
   12.0678   -3.1970    0.0000 H   0  0  0  0  0  0  0  0  0  0  0  0
   11.1509    0.5771    0.0000 H   0  0  0  0  0  0  0  0  0  0  0  0
   10.3409    1.9800    0.0000 H   0  0  0  0  0  0  0  0  0  0  0  0
    2.8660    2.8870    0.0000 H   0  0  0  0  0  0  0  0  0  0  0  0
    3.9399    2.8870    0.0000 H   0  0  0  0  0  0  0  0  0  0  0  0
    2.0000    1.3870    0.0000 H   0  0  0  0  0  0  0  0  0  0  0  0
  1 22  1  0  0  0  0
  2 13  1  0  0  0  0
  2 17  1  0  0  0  0
  3 16  2  0  0  0  0
  4  8  1  0  0  0  0
  4  9  1  0  0  0  0
  4 27  1  0  0  0  0
  5  8  1  0  0  0  0
  5 10  1  0  0  0  0
  5 28  1  0  0  0  0
  6 25  1  0  0  0  0
  6 42  1  0  0  0  0
  6 43  1  0  0  0  0
  7 25  2  0  0  0  0
  7 44  1  0  0  0  0
  8 12  2  0  0  0  0
  9 10  2  0  0  0  0
  9 14  1  0  0  0  0
 10 15  1  0  0  0  0
 11 13  1  0  0  0  0
 11 20  1  0  0  0  0
 11 21  1  0  0  0  0
 11 26  1  0  0  0  0
 12 16  1  0  0  0  0
 12 19  1  0  0  0  0
 13 29  1  0  0  0  0
 13 30  1  0  0  0  0
 14 18  2  0  0  0  0
 14 31  1  0  0  0  0
 15 22  2  0  0  0  0
 15 32  1  0  0  0  0
 16 17  1  0  0  0  0
 17 23  2  0  0  0  0
 18 22  1  0  0  0  0
 18 25  1  0  0  0  0
 19 24  2  0  0  0  0
 19 33  1  0  0  0  0
 20 34  1  0  0  0  0
 20 35  1  0  0  0  0
 20 36  1  0  0  0  0
 21 37  1  0  0  0  0
 21 38  1  0  0  0  0
 21 39  1  0  0  0  0
 23 24  1  0  0  0  0
 23 40  1  0  0  0  0
 24 41  1  0  0  0  0
M  END
> <PUBCHEM_COMPOUND_CID>
5326553

> <PUBCHEM_COMPOUND_CANONICALIZED>
1

> <PUBCHEM_CACTVS_COMPLEXITY>
668

> <PUBCHEM_CACTVS_HBOND_ACCEPTOR>
6

> <PUBCHEM_CACTVS_HBOND_DONOR>
4

> <PUBCHEM_CACTVS_ROTATABLE_BOND>
4

> <PUBCHEM_CACTVS_SUBSKEYS>
AAADceB7sQAAAAAAAAAAAAAAAAAAAWAAAAAwQAAAAAAAAFgBAAAAHwAQAAAADQyhmAozwILABACoAqZyYAKCCAChIgAIiAFgdNiIYKLAkZWWIAhs0AJIyecQgAAOCAAAQAAAACAQAACAAAAAQAAAAAAAAA==

> <PUBCHEM_IUPAC_OPENEYE_NAME>
(2Z)-6-fluoro-2-(5-isobutoxy-6-oxo-cyclohexa-2,4-dien-1-ylidene)-1,3-dihydrobenzimidazole-5-carboxamidine

> <PUBCHEM_IUPAC_CAS_NAME>
(2Z)-6-fluoro-2-[5-(2-methylpropoxy)-6-oxo-1-cyclohexa-2,4-dienylidene]-1,3-dihydrobenzimidazole-5-carboximidamide

> <PUBCHEM_IUPAC_NAME_MARKUP>
(2<I>Z</I>)-6-fluoro-2-[5-(2-methylpropoxy)-6-oxocyclohexa-2,4-dien-1-ylidene]-1,3-dihydrobenzimidazole-5-carboximidamide

> <PUBCHEM_IUPAC_NAME>
(2Z)-6-fluoro-2-[5-(2-methylpropoxy)-6-oxocyclohexa-2,4-dien-1-ylidene]-1,3-dihydrobenzimidazole-5-carboximidamide

> <PUBCHEM_IUPAC_SYSTEMATIC_NAME>
(2Z)-6-fluoranyl-2-[5-(2-methylpropoxy)-6-oxidanylidene-cyclohexa-2,4-dien-1-ylidene]-1,3-dihydrobenzimidazole-5-carboximidamide

> <PUBCHEM_IUPAC_TRADITIONAL_NAME>
(2Z)-6-fluoro-2-(5-isobutoxy-6-keto-cyclohexa-2,4-dien-1-ylidene)-1,3-dihydrobenzimidazole-5-carboxamidine

> <PUBCHEM_IUPAC_INCHI>
InChI=1S/C18H19FN4O2/c1-9(2)8-25-15-5-3-4-10(16(15)24)18-22-13-6-11(17(20)21)12(19)7-14(13)23-18/h3-7,9,22-23H,8H2,1-2H3,(H3,20,21)/b18-10-

> <PUBCHEM_IUPAC_INCHIKEY>
UCNPDXNUABCGGH-ZDLGFXPLSA-N

> <PUBCHEM_XLOGP3_AA>
3.3

> <PUBCHEM_EXACT_MASS>
342.14920402

> <PUBCHEM_MOLECULAR_FORMULA>
C18H19FN4O2

> <PUBCHEM_MOLECULAR_WEIGHT>
342.4

> <PUBCHEM_SMILES>
CC(C)COC1=CC=C/C(=C/2\NC3=C(N2)C=C(C(=C3)C(=N)N)F)/C1=O

> <PUBCHEM_CONNECTIVITY_SMILES>
CC(C)COC1=CC=CC(=C2NC3=C(N2)C=C(C(=C3)C(=N)N)F)C1=O

> <PUBCHEM_CACTVS_TPSA>
100

> <PUBCHEM_MONOISOTOPIC_WEIGHT>
342.14920402

> <PUBCHEM_TOTAL_CHARGE>
0

> <PUBCHEM_HEAVY_ATOM_COUNT>
25

> <PUBCHEM_ATOM_DEF_STEREO_COUNT>
0

> <PUBCHEM_ATOM_UDEF_STEREO_COUNT>
0

> <PUBCHEM_BOND_DEF_STEREO_COUNT>
1

> <PUBCHEM_BOND_UDEF_STEREO_COUNT>
0

> <PUBCHEM_ISOTOPIC_ATOM_COUNT>
0

> <PUBCHEM_COMPONENT_COUNT>
1

> <PUBCHEM_CACTVS_TAUTO_COUNT>
-1

> <PUBCHEM_COORDINATE_TYPE>
1
5
255

> <PUBCHEM_BONDANNOTATIONS>
10  15  8
14  18  8
15  22  8
18  22  8
9  10  8
9  14  8

$$$$
